@<TRIPOS>MOLECULE
UNK
   42    43     1 0 0
SMALL
GASTEIGER


@<TRIPOS>ATOM
      1 C            23.865000   45.341000   36.887000 C.3      1 UNK1       0.1548
      2 C            23.690000   45.706000   39.405000 C.3      1 UNK1       0.1632
      3 C            23.847000   44.660000   38.301000 C.3      1 UNK1       0.0814
      4 C            24.460000   46.793000   36.980000 C.3      1 UNK1       0.0804
      5 C            25.016000   46.548000   39.447000 C.3      1 UNK1       0.1725
      6 C            25.587000   46.834000   38.016000 C.3      1 UNK1       0.1488
      7 C            22.718000   45.626000   41.667000 C.2      1 UNK1       0.2857
      8 C            23.487000   46.371000   42.694000 C.2      1 UNK1       0.0799
      9 C            23.384000   46.180000   44.026000 C.2      1 UNK1       0.0142
     10 C            22.405000   45.261000   44.648000 C.ar     1 UNK1      -0.0253
     11 C            21.164000   45.695000   45.141000 C.ar     1 UNK1       0.0106
     12 C            20.298000   44.781000   45.756000 C.ar     1 UNK1       0.0336
     13 C            20.672000   43.435000   45.893000 C.ar     1 UNK1       0.0713
     14 C            21.899000   43.003000   45.384000 C.ar     1 UNK1       0.0336
     15 C            22.753000   43.908000   44.754000 C.ar     1 UNK1       0.0106
     16 C            22.450000   45.323000   36.283000 C.2      1 UNK1       0.2906
     17 O            23.353000   45.080000   40.595000 O.3      1 UNK1      -0.3063
     18 O            21.505000   45.574000   41.768000 O.2      1 UNK1      -0.2614
     19 O            19.863000   42.552000   46.514000 O.3      1 UNK1      -0.3609
     20 O            26.028000   45.880000   40.161000 O.3      1 UNK1      -0.3877
     21 O            24.707000   44.585000   36.045000 O.3      1 UNK1      -0.3792
     22 O            22.303000   45.702000   35.131000 O.2      1 UNK1      -0.2634
     23 O            21.353000   44.916000   36.965000 O.3      1 UNK1      -0.3295
     24 O            26.238000   48.076000   37.986000 O.3      1 UNK1      -0.3902
     25 H            19.500000   41.782000   46.055000 H        1 UNK1       0.2182
     26 H            26.265000   46.434000   40.946000 H        1 UNK1       0.2107
     27 H            25.440000   44.198000   36.593000 H        1 UNK1       0.2116
     28 H            21.286000   44.089000   37.452000 H        1 UNK1       0.2215
     29 H            25.704000   48.664000   37.390000 H        1 UNK1       0.2106
     30 H6           22.872951   46.372272   39.128212 H        1 UNK1       0.0000
     31 H7           23.012404   43.960618   38.350141 H        1 UNK1       0.0000
     32 H8           24.782633   44.121008   38.449922 H        1 UNK1       0.0000
     33 H9           24.854542   47.083929   36.006451 H        1 UNK1       0.0000
     34 H10          23.673053   47.486779   37.275777 H        1 UNK1       0.0000
     35 H11          24.810913   47.499158   39.938262 H        1 UNK1       0.0000
     36 H12          26.311355   46.057344   37.770613 H        1 UNK1       0.0000
     37 H13          24.188054   47.129857   42.346497 H        1 UNK1       0.0000
     38 H14          24.058850   46.732906   44.679431 H        1 UNK1       0.0000
     39 H15          20.874613   46.741530   45.045454 H        1 UNK1       0.0000
     40 H16          19.330438   45.116451   46.129358 H        1 UNK1       0.0000
     41 H17          22.189548   41.956773   45.479344 H        1 UNK1       0.0000
     42 H18          23.699434   43.559613   44.340493 H        1 UNK1       0.0000
@<TRIPOS>BOND
     1    1   21 1
     2    1   16 1
     3    1    4 1
     4    1    3 1
     5    2   17 1
     6    2    5 1
     7    2    3 1
     8    4    6 1
     9    5   20 1
    10    5    6 1
    11    6   24 1
    12    7   18 2
    13    7   17 1
    14    7    8 1
    15    8    9 2
    16    9   10 1
    17   10   11 ar
    18   10   15 ar
    19   11   12 ar
    20   12   13 ar
    21   13   14 ar
    22   13   19 1
    23   14   15 ar
    24   16   23 1
    25   16   22 2
    26   19   25 1
    27   20   26 1
    28   21   27 1
    29   23   28 1
    30   24   29 1
    31    2   30 1
    32    3   31 1
    33    3   32 1
    34    4   33 1
    35    4   34 1
    36    5   35 1
    37    6   36 1
    38    8   37 1
    39    9   38 1
    40   11   39 1
    41   12   40 1
    42   14   41 1
    43   15   42 1
@<TRIPOS>SUBSTRUCTURE
1 UNK1 1 RESIDUE 1 N UNK
@<TRIPOS>SET
GROUP:Hetatm STATIC ATOMS <user>
29 1 2 3 4 5 6 7 8 9 10 11 12 13 14 15 16 17 18 19 20 21 22 23 24 25 26 27 28 \
29
@<SCITEGIC>MOL_PROPERTY
__PDBRemarks__
SciTegic.value.StringValue


@<SCITEGIC>MOL_PROPERTY
__PDBSeqres__
SciTegic.value.StringValue


@<SCITEGIC>ATOM_PROPERTY
Formal Charge
SciTegic.value.StringValue
1 0
2 0
3 0
4 0
5 0
6 0
7 0
8 0
9 0
10 0
11 0
12 0
13 0
14 0
15 0
16 0
17 0
18 0
19 0
20 0
21 0
22 0
23 0
24 0
25 0
26 0
27 0
28 0
29 0
30 0
31 0
32 0
33 0
34 0
35 0
36 0
37 0
38 0
39 0
40 0
41 0
42 0

@<SCITEGIC>ATOM_PROPERTY
pdb_tempFactor
SciTegic.value.DoubleValue
1 0.00
2 0.00
3 0.00
4 0.00
5 0.00
6 0.00
7 0.00
8 0.00
9 0.00
10 0.00
11 0.00
12 0.00
13 0.00
14 0.00
15 0.00
16 0.00
17 0.00
18 0.00
19 0.00
20 0.00
21 0.00
22 0.00
23 0.00
24 0.00
25 0.00
26 0.00
27 0.00
28 0.00
29 0.00
30 0.00
31 0.00
32 0.00
33 0.00
34 0.00
35 0.00
36 0.00
37 0.00
38 0.00
39 0.00
40 0.00
41 0.00
42 0.00

@<SCITEGIC>ATOM_PROPERTY
pdb_occupancy
SciTegic.value.DoubleValue
1 0.00
2 0.00
3 0.00
4 0.00
5 0.00
6 0.00
7 0.00
8 0.00
9 0.00
10 0.00
11 0.00
12 0.00
13 0.00
14 0.00
15 0.00
16 0.00
17 0.00
18 0.00
19 0.00
20 0.00
21 0.00
22 0.00
23 0.00
24 0.00
25 0.00
26 0.00
27 0.00
28 0.00
29 0.00
30 0.00
31 0.00
32 0.00
33 0.00
34 0.00
35 0.00
36 0.00
37 0.00
38 0.00
39 0.00
40 0.00
41 0.00
42 0.00

@<SCITEGIC>ATOM_PROPERTY
pdb_heteroAtom
SciTegic.value.BooleanValue
1 true
2 true
3 true
4 true
5 true
6 true
7 true
8 true
9 true
10 true
11 true
12 true
13 true
14 true
15 true
16 true
17 true
18 true
19 true
20 true
21 true
22 true
23 true
24 true
25 true
26 true
27 true
28 true
29 true

