@<TRIPOS>MOLECULE
UNK
   42    43     1 0 0
SMALL
GASTEIGER


@<TRIPOS>ATOM
      1 C            23.865000   45.341000   36.887000 C.3      1 UNK1       0.1548
      2 C            23.690000   45.706000   39.405000 C.3      1 UNK1       0.1632
      3 C            23.847000   44.660000   38.301000 C.3      1 UNK1       0.0814
      4 C            24.460000   46.793000   36.980000 C.3      1 UNK1       0.0804
      5 C            25.016000   46.548000   39.447000 C.3      1 UNK1       0.1725
      6 C            25.587000   46.834000   38.016000 C.3      1 UNK1       0.1488
      7 C            22.718000   45.626000   41.667000 C.2      1 UNK1       0.2857
      8 C            23.487000   46.371000   42.694000 C.2      1 UNK1       0.0799
      9 C            23.384000   46.180000   44.026000 C.2      1 UNK1       0.0142
     10 C            22.405000   45.261000   44.648000 C.ar     1 UNK1      -0.0253
     11 C            21.164000   45.695000   45.141000 C.ar     1 UNK1       0.0106
     12 C            20.298000   44.781000   45.756000 C.ar     1 UNK1       0.0336
     13 C            20.672000   43.435000   45.893000 C.ar     1 UNK1       0.0713
     14 C            21.899000   43.003000   45.384000 C.ar     1 UNK1       0.0336
     15 C            22.753000   43.908000   44.754000 C.ar     1 UNK1       0.0106
     16 C            22.450000   45.323000   36.283000 C.2      1 UNK1       0.2906
     17 O            23.353000   45.080000   40.595000 O.3      1 UNK1      -0.3063
     18 O            21.505000   45.574000   41.768000 O.2      1 UNK1      -0.2614
     19 O            19.863000   42.552000   46.514000 O.3      1 UNK1      -0.3609
     20 O            26.028000   45.880000   40.161000 O.3      1 UNK1      -0.3877
     21 O            24.707000   44.585000   36.045000 O.3      1 UNK1      -0.3792
     22 O            22.303000   45.702000   35.131000 O.2      1 UNK1      -0.2634
     23 O            21.353000   44.916000   36.965000 O.3      1 UNK1      -0.3295
     24 O            26.238000   48.076000   37.986000 O.3      1 UNK1      -0.3902
     25 H            19.500000   41.782000   46.055000 H        1 UNK1       0.2182
     26 H            26.265000   46.434000   40.946000 H        1 UNK1       0.2107
     27 H            25.440000   44.198000   36.593000 H        1 UNK1       0.2116
     28 H            21.286000   44.089000   37.452000 H        1 UNK1       0.2215
     29 H            25.704000   48.664000   37.390000 H        1 UNK1       0.2106
     30 H6           22.872951   46.372272   39.128212 H        1 UNK1       0.0000
     31 H7           23.012404   43.960618   38.350141 H        1 UNK1       0.0000
     32 H8           24.782633   44.121008   38.449922 H        1 UNK1       0.0000
     33 H9           24.854542   47.083929   36.006451 H        1 UNK1       0.0000
     34 H10          23.673053   47.486779   37.275777 H        1 UNK1       0.0000
     35 H11          24.810913   47.499158   39.938262 H        1 UNK1       0.0000
     36 H12          26.311355   46.057344   37.770613 H        1 UNK1       0.0000
     37 H13          24.188054   47.129857   42.346497 H        1 UNK1       0.0000
     38 H14          24.058850   46.732906   44.679431 H        1 UNK1       0.0000
     39 H15          20.874613   46.741530   45.045454 H        1 UNK1       0.0000
     40 H16          19.330438   45.116451   46.129358 H        1 UNK1       0.0000
     41 H17          22.189548   41.956773   45.479344 H        1 UNK1       0.0000
     42 H18          23.699434   43.559613   44.340493 H        1 UNK1       0.0000
@<TRIPOS>BOND
     1     1    21    1
     2     1    16    1
     3     1     4    1
     4     1     3    1
     5     2    17    1
     6     2     5    1
     7     2     3    1
     8     2    30    1
     9     3    31    1
    10     3    32    1
    11     4     6    1
    12     4    33    1
    13     4    34    1
    14     5    20    1
    15     5     6    1
    16     5    35    1
    17     6    24    1
    18     6    36    1
    19     7    18    2
    20     7    17    1
    21     7     8    1
    22     8     9    2
    23     8    37    1
    24     9    10    1
    25     9    38    1
    26    10    11   ar
    27    10    15   ar
    28    11    12   ar
    29    11    39    1
    30    12    13   ar
    31    12    40    1
    32    13    14   ar
    33    13    19    1
    34    14    15   ar
    35    14    41    1
    36    15    42    1
    37    16    23    1
    38    16    22    2
    39    19    25    1
    40    20    26    1
    41    21    27    1
    42    23    28    1
    43    24    29    1
